Benzene
     RDKit          3D

 12 12  0  0  0  0  0  0  0  0999 V2000
    0.8056   -1.1438   -0.0083 C   0  0  0  0  0  0  0  0  0  0  0  0
    1.3931    0.1257   -0.0282 C   0  0  0  0  0  0  0  0  0  0  0  0
    0.5875    1.2695   -0.0199 C   0  0  0  0  0  0  0  0  0  0  0  0
   -0.8056    1.1438    0.0083 C   0  0  0  0  0  0  0  0  0  0  0  0
   -1.3931   -0.1257    0.0282 C   0  0  0  0  0  0  0  0  0  0  0  0
   -0.5875   -1.2695    0.0199 C   0  0  0  0  0  0  0  0  0  0  0  0
    1.4288   -2.0287   -0.0147 H   0  0  0  0  0  0  0  0  0  0  0  0
    2.4708    0.2230   -0.0500 H   0  0  0  0  0  0  0  0  0  0  0  0
    1.0420    2.2517   -0.0354 H   0  0  0  0  0  0  0  0  0  0  0  0
   -1.4288    2.0287    0.0147 H   0  0  0  0  0  0  0  0  0  0  0  0
   -2.4708   -0.2230    0.0500 H   0  0  0  0  0  0  0  0  0  0  0  0
   -1.0420   -2.2517    0.0354 H   0  0  0  0  0  0  0  0  0  0  0  0
  1  2  2  0
  2  3  1  0
  3  4  2  0
  4  5  1  0
  5  6  2  0
  6  1  1  0
  1  7  1  0
  2  8  1  0
  3  9  1  0
  4 10  1  0
  5 11  1  0
  6 12  1  0
M  END
$$$$
Naphthalene
     RDKit          3D

 18 19  0  0  0  0  0  0  0  0999 V2000
    2.4056   -0.7414    0.2107 C   0  0  0  0  0  0  0  0  0  0  0  0
    2.4091    0.6425    0.4057 C   0  0  0  0  0  0  0  0  0  0  0  0
    1.2132    1.3643    0.3507 C   0  0  0  0  0  0  0  0  0  0  0  0
    0.0017    0.7017    0.0989 C   0  0  0  0  0  0  0  0  0  0  0  0
   -1.2062    1.4140    0.0409 C   0  0  0  0  0  0  0  0  0  0  0  0
   -2.4056    0.7414   -0.2107 C   0  0  0  0  0  0  0  0  0  0  0  0
   -2.4091   -0.6425   -0.4057 C   0  0  0  0  0  0  0  0  0  0  0  0
   -1.2132   -1.3643   -0.3507 C   0  0  0  0  0  0  0  0  0  0  0  0
   -0.0017   -0.7017   -0.0989 C   0  0  0  0  0  0  0  0  0  0  0  0
    1.2062   -1.4140   -0.0409 C   0  0  0  0  0  0  0  0  0  0  0  0
    3.3351   -1.2943    0.2546 H   0  0  0  0  0  0  0  0  0  0  0  0
    3.3412    1.1572    0.6001 H   0  0  0  0  0  0  0  0  0  0  0  0
    1.2349    2.4367    0.5043 H   0  0  0  0  0  0  0  0  0  0  0  0
   -1.2226    2.4871    0.1897 H   0  0  0  0  0  0  0  0  0  0  0  0
   -3.3351    1.2943   -0.2546 H   0  0  0  0  0  0  0  0  0  0  0  0
   -3.3412   -1.1572   -0.6001 H   0  0  0  0  0  0  0  0  0  0  0  0
   -1.2349   -2.4367   -0.5043 H   0  0  0  0  0  0  0  0  0  0  0  0
    1.2226   -2.4871   -0.1897 H   0  0  0  0  0  0  0  0  0  0  0  0
  1  2  2  0
  2  3  1  0
  3  4  2  0
  4  5  1  0
  5  6  2  0
  6  7  1  0
  7  8  2  0
  8  9  1  0
  9 10  2  0
 10  1  1  0
  9  4  1  0
  1 11  1  0
  2 12  1  0
  3 13  1  0
  5 14  1  0
  6 15  1  0
  7 16  1  0
  8 17  1  0
 10 18  1  0
M  END
$$$$
Anthracene
     RDKit          3D

 24 26  0  0  0  0  0  0  0  0999 V2000
   -3.6338   -0.1483   -0.7400 C   0  0  0  0  0  0  0  0  0  0  0  0
   -3.6464    0.4560    0.5196 C   0  0  0  0  0  0  0  0  0  0  0  0
   -2.4466    0.7093    1.1903 C   0  0  0  0  0  0  0  0  0  0  0  0
   -1.2213    0.3577    0.6017 C   0  0  0  0  0  0  0  0  0  0  0  0
   -0.0127    0.6083    1.2680 C   0  0  0  0  0  0  0  0  0  0  0  0
    1.2086    0.2550    0.6753 C   0  0  0  0  0  0  0  0  0  0  0  0
    2.4213    0.5036    1.3377 C   0  0  0  0  0  0  0  0  0  0  0  0
    3.6338    0.1483    0.7400 C   0  0  0  0  0  0  0  0  0  0  0  0
    3.6464   -0.4560   -0.5196 C   0  0  0  0  0  0  0  0  0  0  0  0
    2.4466   -0.7093   -1.1903 C   0  0  0  0  0  0  0  0  0  0  0  0
    1.2213   -0.3577   -0.6017 C   0  0  0  0  0  0  0  0  0  0  0  0
    0.0127   -0.6083   -1.2680 C   0  0  0  0  0  0  0  0  0  0  0  0
   -1.2086   -0.2550   -0.6753 C   0  0  0  0  0  0  0  0  0  0  0  0
   -2.4213   -0.5036   -1.3377 C   0  0  0  0  0  0  0  0  0  0  0  0
   -4.5661   -0.3420   -1.2545 H   0  0  0  0  0  0  0  0  0  0  0  0
   -4.5884    0.7289    0.9774 H   0  0  0  0  0  0  0  0  0  0  0  0
   -2.4763    1.1787    2.1665 H   0  0  0  0  0  0  0  0  0  0  0  0
   -0.0224    1.0776    2.2460 H   0  0  0  0  0  0  0  0  0  0  0  0
    2.4316    0.9713    2.3150 H   0  0  0  0  0  0  0  0  0  0  0  0
    4.5662    0.3420    1.2545 H   0  0  0  0  0  0  0  0  0  0  0  0
    4.5884   -0.7289   -0.9774 H   0  0  0  0  0  0  0  0  0  0  0  0
    2.4763   -1.1787   -2.1665 H   0  0  0  0  0  0  0  0  0  0  0  0
    0.0224   -1.0776   -2.2460 H   0  0  0  0  0  0  0  0  0  0  0  0
   -2.4316   -0.9713   -2.3150 H   0  0  0  0  0  0  0  0  0  0  0  0
  1  2  2  0
  2  3  1  0
  3  4  2  0
  4  5  1  0
  5  6  2  0
  6  7  1  0
  7  8  2  0
  8  9  1  0
  9 10  2  0
 10 11  1  0
 11 12  2  0
 12 13  1  0
 13 14  2  0
 14  1  1  0
 13  4  1  0
 11  6  1  0
  1 15  1  0
  2 16  1  0
  3 17  1  0
  5 18  1  0
  7 19  1  0
  8 20  1  0
  9 21  1  0
 10 22  1  0
 12 23  1  0
 14 24  1  0
M  END
$$$$
Pyridine
     RDKit          3D

 11 11  0  0  0  0  0  0  0  0999 V2000
    0.1509    1.1638    0.0486 C   0  0  0  0  0  0  0  0  0  0  0  0
    1.2584    0.3165   -0.0316 C   0  0  0  0  0  0  0  0  0  0  0  0
    1.0583   -1.0655   -0.0885 C   0  0  0  0  0  0  0  0  0  0  0  0
   -0.2039   -1.5726   -0.0657 N   0  0  0  0  0  0  0  0  0  0  0  0
   -1.2956   -0.7645    0.0121 C   0  0  0  0  0  0  0  0  0  0  0  0
   -1.1366    0.6228    0.0708 C   0  0  0  0  0  0  0  0  0  0  0  0
    0.2900    2.2363    0.0934 H   0  0  0  0  0  0  0  0  0  0  0  0
    2.2603    0.7256   -0.0494 H   0  0  0  0  0  0  0  0  0  0  0  0
    1.9061   -1.7346   -0.1508 H   0  0  0  0  0  0  0  0  0  0  0  0
   -2.2864   -1.1984    0.0283 H   0  0  0  0  0  0  0  0  0  0  0  0
   -2.0014    1.2706    0.1327 H   0  0  0  0  0  0  0  0  0  0  0  0
  1  2  2  0
  2  3  1  0
  3  4  2  0
  4  5  1  0
  5  6  2  0
  6  1  1  0
  1  7  1  0
  2  8  1  0
  3  9  1  0
  5 10  1  0
  6 11  1  0
M  END
$$$$
Furan
     RDKit          3D

  9  9  0  0  0  0  0  0  0  0999 V2000
    0.6662    0.6897    0.1948 C   0  0  0  0  0  0  0  0  0  0  0  0
   -0.7102    0.6629    0.1395 C   0  0  0  0  0  0  0  0  0  0  0  0
   -1.0479   -0.6043   -0.2870 C   0  0  0  0  0  0  0  0  0  0  0  0
    0.0426   -1.3095   -0.4810 O   0  0  0  0  0  0  0  0  0  0  0  0
    1.0859   -0.5628   -0.2012 C   0  0  0  0  0  0  0  0  0  0  0  0
    1.2901    1.5230    0.4889 H   0  0  0  0  0  0  0  0  0  0  0  0
   -1.3876    1.4710    0.3812 H   0  0  0  0  0  0  0  0  0  0  0  0
   -2.0520   -0.9755   -0.4425 H   0  0  0  0  0  0  0  0  0  0  0  0
    2.1129   -0.8945   -0.2751 H   0  0  0  0  0  0  0  0  0  0  0  0
  1  2  1  0
  2  3  2  0
  3  4  1  0
  4  5  1  0
  5  1  2  0
  1  6  1  0
  2  7  1  0
  3  8  1  0
  5  9  1  0
M  END
$$$$
Thiophene
     RDKit          3D

  9  9  0  0  0  0  0  0  0  0999 V2000
    0.7046   -0.6715    0.0757 C   0  0  0  0  0  0  0  0  0  0  0  0
   -0.6957   -0.6808    0.0746 C   0  0  0  0  0  0  0  0  0  0  0  0
   -1.2599    0.5793   -0.0664 C   0  0  0  0  0  0  0  0  0  0  0  0
   -0.0111    1.6974   -0.1887 S   0  0  0  0  0  0  0  0  0  0  0  0
    1.2522    0.5960   -0.0643 C   0  0  0  0  0  0  0  0  0  0  0  0
    1.3030   -1.5671    0.1762 H   0  0  0  0  0  0  0  0  0  0  0  0
   -1.2824   -1.5843    0.1741 H   0  0  0  0  0  0  0  0  0  0  0  0
   -2.3183    0.8002   -0.0926 H   0  0  0  0  0  0  0  0  0  0  0  0
    2.3077    0.8308   -0.0887 H   0  0  0  0  0  0  0  0  0  0  0  0
  1  2  1  0
  2  3  2  0
  3  4  1  0
  4  5  1  0
  5  1  2  0
  1  6  1  0
  2  7  1  0
  3  8  1  0
  5  9  1  0
M  END
$$$$
Methanol
     RDKit          3D

  6  5  0  0  0  0  0  0  0  0999 V2000
   -0.3571    0.0277    0.0146 C   0  0  0  0  0  0  0  0  0  0  0  0
    0.9360    0.5042   -0.2234 O   0  0  0  0  0  0  0  0  0  0  0  0
   -0.4625   -0.2810    1.0773 H   0  0  0  0  0  0  0  0  0  0  0  0
   -1.0874    0.8357   -0.1966 H   0  0  0  0  0  0  0  0  0  0  0  0
   -0.5762   -0.8355   -0.6507 H   0  0  0  0  0  0  0  0  0  0  0  0
    1.5472   -0.2510   -0.0212 H   0  0  0  0  0  0  0  0  0  0  0  0
  1  2  1  0
  1  3  1  0
  1  4  1  0
  1  5  1  0
  2  6  1  0
M  END
$$$$
Ethanol
     RDKit          3D

  9  8  0  0  0  0  0  0  0  0999 V2000
    0.9877    0.2829   -0.1318 C   0  0  0  0  0  0  0  0  0  0  0  0
   -0.3876   -0.3658   -0.1137 C   0  0  0  0  0  0  0  0  0  0  0  0
   -1.3675    0.6154    0.0789 O   0  0  0  0  0  0  0  0  0  0  0  0
    1.1777    0.7988    0.8333 H   0  0  0  0  0  0  0  0  0  0  0  0
    1.0488    1.0218   -0.9590 H   0  0  0  0  0  0  0  0  0  0  0  0
    1.7666   -0.4937   -0.2845 H   0  0  0  0  0  0  0  0  0  0  0  0
   -0.5587   -0.8868   -1.0820 H   0  0  0  0  0  0  0  0  0  0  0  0
   -0.4297   -1.1100    0.7125 H   0  0  0  0  0  0  0  0  0  0  0  0
   -2.2373    0.1375    0.0820 H   0  0  0  0  0  0  0  0  0  0  0  0
  1  2  1  0
  2  3  1  0
  1  4  1  0
  1  5  1  0
  1  6  1  0
  2  7  1  0
  2  8  1  0
  3  9  1  0
M  END
$$$$
Acetone
     RDKit          3D

 10  9  0  0  0  0  0  0  0  0999 V2000
    1.2961   -0.2292    0.0838 C   0  0  0  0  0  0  0  0  0  0  0  0
    0.0321    0.5707   -0.0284 C   0  0  0  0  0  0  0  0  0  0  0  0
    0.1005    1.7885   -0.0891 O   0  0  0  0  0  0  0  0  0  0  0  0
   -1.3141   -0.0901   -0.0679 C   0  0  0  0  0  0  0  0  0  0  0  0
    1.9407   -0.0299   -0.7978 H   0  0  0  0  0  0  0  0  0  0  0  0
    1.0852   -1.3180    0.1298 H   0  0  0  0  0  0  0  0  0  0  0  0
    1.8409    0.0655    1.0051 H   0  0  0  0  0  0  0  0  0  0  0  0
   -1.8276    0.1710   -1.0169 H   0  0  0  0  0  0  0  0  0  0  0  0
   -1.2264   -1.1948   -0.0046 H   0  0  0  0  0  0  0  0  0  0  0  0
   -1.9274    0.2664    0.7860 H   0  0  0  0  0  0  0  0  0  0  0  0
  1  2  1  0
  2  3  2  0
  2  4  1  0
  1  5  1  0
  1  6  1  0
  1  7  1  0
  4  8  1  0
  4  9  1  0
  4 10  1  0
M  END
$$$$
Benzonitrile
     RDKit          3D

 13 13  0  0  0  0  0  0  0  0999 V2000
    3.6565   -0.0726    0.2364 N   0  0  0  0  0  0  0  0  0  0  0  0
    2.5019   -0.0497    0.1618 C   0  0  0  0  0  0  0  0  0  0  0  0
    1.0657   -0.0212    0.0689 C   0  0  0  0  0  0  0  0  0  0  0  0
    0.3870    1.2052    0.0475 C   0  0  0  0  0  0  0  0  0  0  0  0
   -1.0088    1.2312   -0.0427 C   0  0  0  0  0  0  0  0  0  0  0  0
   -1.7287    0.0343   -0.1118 C   0  0  0  0  0  0  0  0  0  0  0  0
   -1.0538   -1.1902   -0.0906 C   0  0  0  0  0  0  0  0  0  0  0  0
    0.3420   -1.2197   -0.0004 C   0  0  0  0  0  0  0  0  0  0  0  0
    0.9354    2.1381    0.1005 H   0  0  0  0  0  0  0  0  0  0  0  0
   -1.5321    2.1785   -0.0592 H   0  0  0  0  0  0  0  0  0  0  0  0
   -2.8086    0.0558   -0.1816 H   0  0  0  0  0  0  0  0  0  0  0  0
   -1.6119   -2.1161   -0.1441 H   0  0  0  0  0  0  0  0  0  0  0  0
    0.8553   -2.1736    0.0153 H   0  0  0  0  0  0  0  0  0  0  0  0
  1  2  3  0
  2  3  1  0
  3  4  2  0
  4  5  1  0
  5  6  2  0
  6  7  1  0
  7  8  2  0
  8  3  1  0
  4  9  1  0
  5 10  1  0
  6 11  1  0
  7 12  1  0
  8 13  1  0
M  END
$$$$
